
OS:Version,
  {0834dd83-c4b7-4d4a-b17c-0f6337f0725c}, !- Handle
  3.9.0;                                  !- Version Identifier

OS:Site,
  {0ebe7620-7ef3-44ae-9805-bd42c5f72f37}, !- Handle
  Boston Logan IntL Arpt,                 !- Name
  42.37,                                  !- Latitude {deg}
  -71.02,                                 !- Longitude {deg}
  -5,                                     !- Time Zone {hr}
  6,                                      !- Elevation {m}
  City;                                   !- Terrain

OS:SimulationControl,
  {1e3ab519-a44e-4880-8b59-6da76105ece0}, !- Handle
  Yes,                                    !- Do Zone Sizing Calculation
  Yes,                                    !- Do System Sizing Calculation
  Yes,                                    !- Do Plant Sizing Calculation
  Yes,                                    !- Run Simulation for Sizing Periods
  Yes,                                    !- Run Simulation for Weather File Run Periods
  0.04,                                   !- Loads Convergence Tolerance Value {W}
  0.4,                                    !- Temperature Convergence Tolerance Value {deltaC}
  FullExterior,                           !- Solar Distribution
  25,                                     !- Maximum Number of Warmup Days
  6,                                      !- Minimum Number of Warmup Days
  No,                                     !- Do HVAC Sizing Simulation for Sizing Periods
  1;                                      !- Maximum Number of HVAC Sizing Simulation Passes

OS:Building,
  {3cdfc3ac-97ec-4c75-952e-484e2e3d32bd}, !- Handle
  Prototype 4 - DOERefPre1980MidriseApartment - BERDO Configuration, !- Name
  ,                                       !- Building Sector Type
  0,                                      !- North Axis {deg}
  ,                                       !- Nominal Floor to Floor Height {m}
  ,                                       !- Space Type Name
  {c73ee003-6dac-4b9e-b807-e71a33364713}, !- Default Construction Set Name
  ;                                       !- Default Schedule Set Name

OS:Timestep,
  {035a9987-a8fe-4bca-8ecc-2158aabe3f23}, !- Handle
  6;                                      !- Number of Timesteps per Hour

OS:ConvergenceLimits,
  {665507ca-ed89-4b00-a2e3-15269be27b65}, !- Handle
  1,                                      !- Minimum System Timestep {minutes}
  20;                                     !- Maximum HVAC Iterations

OS:HeatBalanceAlgorithm,
  {486722eb-5b5a-4d75-9b28-88bc9513d39e}, !- Handle
  ConductionTransferFunction,             !- Algorithm
  200;                                    !- Surface Temperature Upper Limit {C}

OS:RunPeriod,
  {d33e7f99-ee25-488d-9cb2-9ab62eec08cb}, !- Handle
  RUNPERIOD 1,                            !- Name
  1,                                      !- Begin Month
  1,                                      !- Begin Day of Month
  12,                                     !- End Month
  31,                                     !- End Day of Month
  No,                                     !- Use Weather File Holidays and Special Days
  No,                                     !- Use Weather File Daylight Saving Period
  Yes,                                    !- Apply Weekend Holiday Rule
  Yes,                                    !- Use Weather File Rain Indicators
  Yes,                                    !- Use Weather File Snow Indicators
  ;                                       !- Number of Times Runperiod to be Repeated

OS:YearDescription,
  {2b2711fc-a8bb-4b9a-89ab-1f6cb4dd6a21}, !- Handle
  ,                                       !- Calendar Year
  Sunday;                                 !- Day of Week for Start Day

OS:RunPeriodControl:SpecialDays,
  {6b588e41-8c3b-48c7-9197-2ce8d4b1aa2a}, !- Handle
  New Year's Day,                         !- Name
  Jan 1,                                  !- Start Date
  1,                                      !- Duration {days}
  Holiday;                                !- Special Day Type

OS:RunPeriodControl:SpecialDays,
  {17885a13-8994-44a9-9324-0fb230b8fb1d}, !- Handle
  MLK Day,                                !- Name
  3rd Monday in January,                  !- Start Date
  1,                                      !- Duration {days}
  Holiday;                                !- Special Day Type

OS:RunPeriodControl:SpecialDays,
  {7310c042-42b3-4fde-8074-47cee783da70}, !- Handle
  Presidents Day,                         !- Name
  3rd Monday in February,                 !- Start Date
  1,                                      !- Duration {days}
  Holiday;                                !- Special Day Type

OS:RunPeriodControl:SpecialDays,
  {81e8a623-2581-4ec5-8369-e9e95bed9433}, !- Handle
  Memorial Day,                           !- Name
  Last Monday in May,                     !- Start Date
  1,                                      !- Duration {days}
  Holiday;                                !- Special Day Type

OS:RunPeriodControl:SpecialDays,
  {18ea8312-8ea5-4830-b915-25837e787cb2}, !- Handle
  Independence Day,                       !- Name
  July 4,                                 !- Start Date
  1,                                      !- Duration {days}
  Holiday;                                !- Special Day Type

OS:RunPeriodControl:SpecialDays,
  {cf6b5c4c-f3b0-464c-9472-255741543221}, !- Handle
  Labor day,                              !- Name
  1st Monday in September,                !- Start Date
  1,                                      !- Duration {days}
  Holiday;                                !- Special Day Type

OS:RunPeriodControl:SpecialDays,
  {9c58b552-500b-4ff8-bcd0-e5602829a466}, !- Handle
  Columbus Day,                           !- Name
  2nd Monday in October,                  !- Start Date
  1,                                      !- Duration {days}
  Holiday;                                !- Special Day Type

OS:RunPeriodControl:SpecialDays,
  {2023c93f-91a6-4216-b90a-3b7a6856d05c}, !- Handle
  Thanksgiving,                           !- Name
  4th Thursday in November,               !- Start Date
  1,                                      !- Duration {days}
  Holiday;                                !- Special Day Type

OS:RunPeriodControl:SpecialDays,
  {e253a16e-66d9-4214-a70f-b1c1197804d1}, !- Handle
  Veterans Day,                           !- Name
  November 11,                            !- Start Date
  1,                                      !- Duration {days}
  Holiday;                                !- Special Day Type

OS:RunPeriodControl:SpecialDays,
  {a7f49800-d672-4443-b891-5769d2e97366}, !- Handle
  Christmas,                              !- Name
  December 25,                            !- Start Date
  1,                                      !- Duration {days}
  Holiday;                                !- Special Day Type

OS:RunPeriodControl:DaylightSavingTime,
  {4143dd85-1abd-41de-ae54-b0a13732572b}, !- Handle
  2nd Sunday in March,                    !- Start Date
  1st Sunday in November;                 !- End Date

OS:Material,
  {0bdf413e-2817-43b1-85b6-448c2f11fa20}, !- Handle
  Std Wood 6inch,                         !- Name
  MediumSmooth,                           !- Roughness
  0.15,                                   !- Thickness {m}
  0.12,                                   !- Conductivity {W/m-K}
  540,                                    !- Density {kg/m3}
  1210,                                   !- Specific Heat {J/kg-K}
  0.9,                                    !- Thermal Absorptance
  0.7,                                    !- Solar Absorptance
  0.7;                                    !- Visible Absorptance

OS:Material,
  {02540160-a366-4d46-98d2-ed858a345893}, !- Handle
  F07 25mm stucco,                        !- Name
  Smooth,                                 !- Roughness
  0.0254,                                 !- Thickness {m}
  0.72,                                   !- Conductivity {W/m-K}
  1856,                                   !- Density {kg/m3}
  840,                                    !- Specific Heat {J/kg-K}
  0.9,                                    !- Thermal Absorptance
  0.7,                                    !- Solar Absorptance
  0.7;                                    !- Visible Absorptance

OS:Material,
  {c67439ac-0ae8-490d-b4a0-7bacda9273dd}, !- Handle
  F08 Metal surface,                      !- Name
  Smooth,                                 !- Roughness
  0.0008,                                 !- Thickness {m}
  45.28,                                  !- Conductivity {W/m-K}
  7824,                                   !- Density {kg/m3}
  500;                                    !- Specific Heat {J/kg-K}

OS:Material,
  {ac67a4ae-8fee-48e3-aa86-2ad2dd57738d}, !- Handle
  F13 Built-up roofing,                   !- Name
  Rough,                                  !- Roughness
  0.0095,                                 !- Thickness {m}
  0.16,                                   !- Conductivity {W/m-K}
  1120,                                   !- Density {kg/m3}
  1460,                                   !- Specific Heat {J/kg-K}
  0.9,                                    !- Thermal Absorptance
  0.7;                                    !- Solar Absorptance

OS:Material,
  {c291f944-32aa-441e-ad28-1081ea1d3c93}, !- Handle
  G01 13mm gypsum board,                  !- Name
  Smooth,                                 !- Roughness
  0.0127,                                 !- Thickness {m}
  0.16,                                   !- Conductivity {W/m-K}
  800,                                    !- Density {kg/m3}
  1090,                                   !- Specific Heat {J/kg-K}
  0.9,                                    !- Thermal Absorptance
  0.7,                                    !- Solar Absorptance
  0.5;                                    !- Visible Absorptance

OS:Material,
  {8f0ce37e-7103-4120-8b36-a1f940bdf60d}, !- Handle
  G01 16mm gypsum board,                  !- Name
  MediumSmooth,                           !- Roughness
  0.0159,                                 !- Thickness {m}
  0.16,                                   !- Conductivity {W/m-K}
  800,                                    !- Density {kg/m3}
  1090;                                   !- Specific Heat {J/kg-K}

OS:Material,
  {79d69326-2b38-49a4-9cfc-ec42281576fd}, !- Handle
  100mm Normalweight concrete floor,      !- Name
  MediumRough,                            !- Roughness
  0.1016,                                 !- Thickness {m}
  2.31,                                   !- Conductivity {W/m-K}
  2322,                                   !- Density {kg/m3}
  832;                                    !- Specific Heat {J/kg-K}

OS:Material,
  {029b03d5-73fa-4c51-95f8-5d57d3137b79}, !- Handle
  200mm Normalweight concrete floor,      !- Name
  MediumRough,                            !- Roughness
  0.2032,                                 !- Thickness {m}
  2.31,                                   !- Conductivity {W/m-K}
  2322,                                   !- Density {kg/m3}
  832;                                    !- Specific Heat {J/kg-K}

OS:Material:NoMass,
  {f62dc080-6a87-49ba-8c87-e6737ebc06c1}, !- Handle
  CP02 CARPET PAD,                        !- Name
  VeryRough,                              !- Roughness
  0.21648,                                !- Thermal Resistance {m2-K/W}
  0.9,                                    !- Thermal Absorptance
  0.7,                                    !- Solar Absorptance
  0.8;                                    !- Visible Absorptance

OS:Material:NoMass,
  {952fce27-3fe8-4815-8507-97146c35baa5}, !- Handle
  Nonres_Roof_Insulation,                 !- Name
  MediumSmooth,                           !- Roughness
  2.59864128954982,                       !- Thermal Resistance {m2-K/W}
  0.9,                                    !- Thermal Absorptance
  0.7,                                    !- Solar Absorptance
  0.7;                                    !- Visible Absorptance

OS:Material:NoMass,
  {ec6d7a49-f7bd-4c44-a7ec-0e65917628e8}, !- Handle
  Res_Roof_Insulation,                    !- Name
  MediumSmooth,                           !- Roughness
  2.59864128954982,                       !- Thermal Resistance {m2-K/W}
  0.9,                                    !- Thermal Absorptance
  0.7,                                    !- Solar Absorptance
  0.7;                                    !- Visible Absorptance

OS:Material:NoMass,
  {3c84f597-c447-4500-9579-43768c5f32ad}, !- Handle
  Nonres_Exterior_Wall_Insulation_grd,    !- Name
  MediumSmooth,                           !- Roughness
  0.936939690370569,                      !- Thermal Resistance {m2-K/W}
  0.9,                                    !- Thermal Absorptance
  0.7,                                    !- Solar Absorptance
  0.7;                                    !- Visible Absorptance

OS:Material:NoMass,
  {9990979f-9d5f-449c-8e36-d2006d8be5a6}, !- Handle
  Nonres_Exterior_Wall_Insulation_mid,    !- Name
  MediumSmooth,                           !- Roughness
  0.916855195085051,                      !- Thermal Resistance {m2-K/W}
  0.9,                                    !- Thermal Absorptance
  0.7,                                    !- Solar Absorptance
  0.7;                                    !- Visible Absorptance

OS:Material:NoMass,
  {06685421-9c89-4a78-a582-61c64f1ef3e3}, !- Handle
  Nonres_Exterior_Wall_Insulation_top,    !- Name
  MediumSmooth,                           !- Roughness
  0.667952456625338,                      !- Thermal Resistance {m2-K/W}
  0.9,                                    !- Thermal Absorptance
  0.7,                                    !- Solar Absorptance
  0.7;                                    !- Visible Absorptance

OS:Material:NoMass,
  {509595fe-b3fb-4c4e-8e9c-8a31ee28428e}, !- Handle
  Res_Exterior_Wall_Insulation_grd,       !- Name
  MediumSmooth,                           !- Roughness
  1.16996321921446,                       !- Thermal Resistance {m2-K/W}
  0.9,                                    !- Thermal Absorptance
  0.7,                                    !- Solar Absorptance
  0.7;                                    !- Visible Absorptance

OS:Material:NoMass,
  {b23389e5-cec0-48f6-a162-a3abc6fd0ecd}, !- Handle
  Res_Exterior_Wall_Insulation_mid,       !- Name
  MediumSmooth,                           !- Roughness
  1.14224022841516,                       !- Thermal Resistance {m2-K/W}
  0.9,                                    !- Thermal Absorptance
  0.7,                                    !- Solar Absorptance
  0.7;                                    !- Visible Absorptance

OS:Material:NoMass,
  {bd5b0b30-e8b2-400f-aa43-7c0b7f880724}, !- Handle
  Res_Exterior_Wall_Insulation_top,       !- Name
  MediumSmooth,                           !- Roughness
  0.810593855996764,                      !- Thermal Resistance {m2-K/W}
  0.9,                                    !- Thermal Absorptance
  0.7,                                    !- Solar Absorptance
  0.7;                                    !- Visible Absorptance

OS:Construction,
  {ce313431-5b37-4e71-8a29-407a1b8d224a}, !- Handle
  InteriorFurnishings,                    !- Name
  ,                                       !- Surface Rendering Name
  {0bdf413e-2817-43b1-85b6-448c2f11fa20}; !- Layer 1

OS:Construction,
  {a89b3929-8dc4-4c30-aa82-b36e48b214d2}, !- Handle
  int_wall,                               !- Name
  ,                                       !- Surface Rendering Name
  {c291f944-32aa-441e-ad28-1081ea1d3c93}, !- Layer 1
  {c291f944-32aa-441e-ad28-1081ea1d3c93}; !- Layer 2

OS:Construction,
  {4e5890d3-b268-4726-a5a0-28c1bfa741d0}, !- Handle
  ext_slab_8in_with_carpet,               !- Name
  ,                                       !- Surface Rendering Name
  {029b03d5-73fa-4c51-95f8-5d57d3137b79}, !- Layer 1
  {f62dc080-6a87-49ba-8c87-e6737ebc06c1}; !- Layer 2

OS:Construction,
  {1cb41be7-9441-4b82-ace1-9a4716ed2c0f}, !- Handle
  int_slab_ceiling,                       !- Name
  ,                                       !- Surface Rendering Name
  {f62dc080-6a87-49ba-8c87-e6737ebc06c1}, !- Layer 1
  {79d69326-2b38-49a4-9cfc-ec42281576fd}; !- Layer 2

OS:Construction,
  {f45ac695-d8f9-407c-8c76-c319a9832e11}, !- Handle
  nonres_roof,                            !- Name
  ,                                       !- Surface Rendering Name
  {ac67a4ae-8fee-48e3-aa86-2ad2dd57738d}, !- Layer 1
  {952fce27-3fe8-4815-8507-97146c35baa5}, !- Layer 2
  {c67439ac-0ae8-490d-b4a0-7bacda9273dd}; !- Layer 3

OS:Construction,
  {09646421-f0ab-47a4-a3c8-c1adf26ae93a}, !- Handle
  res_roof,                               !- Name
  ,                                       !- Surface Rendering Name
  {ac67a4ae-8fee-48e3-aa86-2ad2dd57738d}, !- Layer 1
  {ec6d7a49-f7bd-4c44-a7ec-0e65917628e8}, !- Layer 2
  {c67439ac-0ae8-490d-b4a0-7bacda9273dd}; !- Layer 3

OS:Construction,
  {0007ed38-7432-4d89-a3ea-b2f6fb6998ae}, !- Handle
  nonres_ext_wall_grd,                    !- Name
  ,                                       !- Surface Rendering Name
  {02540160-a366-4d46-98d2-ed858a345893}, !- Layer 1
  {8f0ce37e-7103-4120-8b36-a1f940bdf60d}, !- Layer 2
  {3c84f597-c447-4500-9579-43768c5f32ad}, !- Layer 3
  {8f0ce37e-7103-4120-8b36-a1f940bdf60d}; !- Layer 4

OS:Construction,
  {442f809c-c10f-47dc-97c7-d01f7064dbf8}, !- Handle
  nonres_ext_wall_mid,                    !- Name
  ,                                       !- Surface Rendering Name
  {02540160-a366-4d46-98d2-ed858a345893}, !- Layer 1
  {8f0ce37e-7103-4120-8b36-a1f940bdf60d}, !- Layer 2
  {9990979f-9d5f-449c-8e36-d2006d8be5a6}, !- Layer 3
  {8f0ce37e-7103-4120-8b36-a1f940bdf60d}; !- Layer 4

OS:Construction,
  {00821bdc-a6ee-48f9-a4ea-5c84ce002e77}, !- Handle
  nonres_ext_wall_top,                    !- Name
  ,                                       !- Surface Rendering Name
  {02540160-a366-4d46-98d2-ed858a345893}, !- Layer 1
  {8f0ce37e-7103-4120-8b36-a1f940bdf60d}, !- Layer 2
  {06685421-9c89-4a78-a582-61c64f1ef3e3}, !- Layer 3
  {8f0ce37e-7103-4120-8b36-a1f940bdf60d}; !- Layer 4

OS:Construction,
  {cd56f443-41b7-4e1c-bc7f-3de957322769}, !- Handle
  res_ext_wall_grd,                       !- Name
  ,                                       !- Surface Rendering Name
  {02540160-a366-4d46-98d2-ed858a345893}, !- Layer 1
  {8f0ce37e-7103-4120-8b36-a1f940bdf60d}, !- Layer 2
  {509595fe-b3fb-4c4e-8e9c-8a31ee28428e}, !- Layer 3
  {8f0ce37e-7103-4120-8b36-a1f940bdf60d}; !- Layer 4

OS:Construction,
  {8f12a90c-6c48-435f-9976-231ca0a86f87}, !- Handle
  res_ext_wall_mid,                       !- Name
  ,                                       !- Surface Rendering Name
  {02540160-a366-4d46-98d2-ed858a345893}, !- Layer 1
  {8f0ce37e-7103-4120-8b36-a1f940bdf60d}, !- Layer 2
  {b23389e5-cec0-48f6-a162-a3abc6fd0ecd}, !- Layer 3
  {8f0ce37e-7103-4120-8b36-a1f940bdf60d}; !- Layer 4

OS:Construction,
  {8fa8bd8c-6ad0-46e1-bf3b-f5a58f74e37b}, !- Handle
  res_ext_wall_top,                       !- Name
  ,                                       !- Surface Rendering Name
  {02540160-a366-4d46-98d2-ed858a345893}, !- Layer 1
  {8f0ce37e-7103-4120-8b36-a1f940bdf60d}, !- Layer 2
  {bd5b0b30-e8b2-400f-aa43-7c0b7f880724}, !- Layer 3
  {8f0ce37e-7103-4120-8b36-a1f940bdf60d}; !- Layer 4

OS:WindowMaterial:SimpleGlazingSystem,
  {73935163-e515-4fde-9a1d-81e3171198c2}, !- Handle
  Nonres Window Glazing Layer,            !- Name
  3.376293396,                            !- U-Factor {W/m2-K}
  0.39,                                   !- Solar Heat Gain Coefficient
  0.39;                                   !- Visible Transmittance

OS:Construction,
  {a9c89767-3a69-4183-8f3e-3c9dfd0b7ff1}, !- Handle
  NonresWindow_U_0.5946_SHGC_0.39,        !- Name
  ,                                       !- Surface Rendering Name
  {73935163-e515-4fde-9a1d-81e3171198c2}; !- Layer 1

OS:WindowMaterial:SimpleGlazingSystem,
  {9d2ddb20-9815-4874-bfde-02a669678a03}, !- Handle
  Res Window Glazing Layer,               !- Name
  3.376293396,                            !- U-Factor {W/m2-K}
  0.39,                                   !- Solar Heat Gain Coefficient
  0.39;                                   !- Visible Transmittance

OS:Construction,
  {849ed36e-ef54-4efb-9a4f-cf9f25e8e8a8}, !- Handle
  ResWindow_U_0.5946_SHGC_0.39,           !- Name
  ,                                       !- Surface Rendering Name
  {9d2ddb20-9815-4874-bfde-02a669678a03}; !- Layer 1

OS:ThermalZone,
  {6f9ec2d1-9961-4130-a500-663286797f7f}, !- Handle
  G SW Apartment,                         !- Name
  1,                                      !- Multiplier
  ,                                       !- Ceiling Height {m}
  ,                                       !- Volume {m3}
  ,                                       !- Floor Area {m2}
  ,                                       !- Zone Inside Convection Algorithm
  ,                                       !- Zone Outside Convection Algorithm
  ,                                       !- Zone Conditioning Equipment List Name
  {03fa36df-282a-4f8d-a73f-7ebe425091a2}, !- Zone Air Inlet Port List
  {8b641fe4-5659-427f-be36-b26a51d19182}, !- Zone Air Exhaust Port List
  {be0758ba-0ca3-4a07-9c16-43abc6984899}, !- Zone Air Node Name
  {807cac89-88fa-4083-aebb-cf6e273519cb}, !- Zone Return Air Port List
  ,                                       !- Primary Daylighting Control Name
  ,                                       !- Fraction of Zone Controlled by Primary Daylighting Control
  ,                                       !- Secondary Daylighting Control Name
  ,                                       !- Fraction of Zone Controlled by Secondary Daylighting Control
  ,                                       !- Illuminance Map Name
  {e92779d1-ad0f-47d1-9979-1bc377c3ba1b}, !- Group Rendering Name
  {6e0ebe68-1bbf-406d-9b9f-082072d402a1}, !- Thermostat Name
  No;                                     !- Use Ideal Air Loads

OS:Node,
  {25d93fc8-4561-4846-9b8f-2ff469053f7b}, !- Handle
  Node 1,                                 !- Name
  {be0758ba-0ca3-4a07-9c16-43abc6984899}, !- Inlet Port
  ;                                       !- Outlet Port

OS:Connection,
  {be0758ba-0ca3-4a07-9c16-43abc6984899}, !- Handle
  {6f9ec2d1-9961-4130-a500-663286797f7f}, !- Source Object
  11,                                     !- Outlet Port
  {25d93fc8-4561-4846-9b8f-2ff469053f7b}, !- Target Object
  2;                                      !- Inlet Port

OS:PortList,
  {03fa36df-282a-4f8d-a73f-7ebe425091a2}, !- Handle
  {6f9ec2d1-9961-4130-a500-663286797f7f}, !- HVAC Component
  {46d74ffa-c667-4152-b03d-98f22616568f}; !- Port 1

OS:PortList,
  {8b641fe4-5659-427f-be36-b26a51d19182}, !- Handle
  {6f9ec2d1-9961-4130-a500-663286797f7f}, !- HVAC Component
  {ca2a3e1c-c033-4194-a213-77e6c8f34c2a}; !- Port 1

OS:PortList,
  {807cac89-88fa-4083-aebb-cf6e273519cb}, !- Handle
  {6f9ec2d1-9961-4130-a500-663286797f7f}; !- HVAC Component

OS:Sizing:Zone,
  {fc5b9df6-dbf3-4d48-8949-267bca411374}, !- Handle
  {6f9ec2d1-9961-4130-a500-663286797f7f}, !- Zone or ZoneList Name
  SupplyAirTemperature,                   !- Zone Cooling Design Supply Air Temperature Input Method
  12.8,                                   !- Zone Cooling Design Supply Air Temperature {C}
  11.11,                                  !- Zone Cooling Design Supply Air Temperature Difference {deltaC}
  SupplyAirTemperature,                   !- Zone Heating Design Supply Air Temperature Input Method
  40,                                     !- Zone Heating Design Supply Air Temperature {C}
  11.11,                                  !- Zone Heating Design Supply Air Temperature Difference {deltaC}
  0.0085,                                 !- Zone Cooling Design Supply Air Humidity Ratio {kg-H2O/kg-air}
  0.008,                                  !- Zone Heating Design Supply Air Humidity Ratio {kg-H2O/kg-air}
  ,                                       !- Zone Heating Sizing Factor
  ,                                       !- Zone Cooling Sizing Factor
  DesignDay,                              !- Cooling Design Air Flow Method
  0,                                      !- Cooling Design Air Flow Rate {m3/s}
  ,                                       !- Cooling Minimum Air Flow per Zone Floor Area {m3/s-m2}
  ,                                       !- Cooling Minimum Air Flow {m3/s}
  0,                                      !- Cooling Minimum Air Flow Fraction
  DesignDay,                              !- Heating Design Air Flow Method
  0,                                      !- Heating Design Air Flow Rate {m3/s}
  ,                                       !- Heating Maximum Air Flow per Zone Floor Area {m3/s-m2}
  ,                                       !- Heating Maximum Air Flow {m3/s}
  ,                                       !- Heating Maximum Air Flow Fraction
  No,                                     !- Account for Dedicated Outdoor Air System
  ,                                       !- Dedicated Outdoor Air System Control Strategy
  autosize,                               !- Dedicated Outdoor Air Low Setpoint Temperature for Design {C}
  autosize,                               !- Dedicated Outdoor Air High Setpoint Temperature for Design {C}
  Sensible Load Only No Latent Load,      !- Zone Load Sizing Method
  HumidityRatioDifference,                !- Zone Latent Cooling Design Supply Air Humidity Ratio Input Method
  ,                                       !- Zone Dehumidification Design Supply Air Humidity Ratio {kgWater/kgDryAir}
  0.005,                                  !- Zone Cooling Design Supply Air Humidity Ratio Difference {kgWater/kgDryAir}
  HumidityRatioDifference,                !- Zone Latent Heating Design Supply Air Humidity Ratio Input Method
  ,                                       !- Zone Humidification Design Supply Air Humidity Ratio {kgWater/kgDryAir}
  0.005,                                  !- Zone Humidification Design Supply Air Humidity Ratio Difference {kgWater/kgDryAir}
  ,                                       !- Zone Humidistat Dehumidification Set Point Schedule Name
  ,                                       !- Zone Humidistat Humidification Set Point Schedule Name
  ,                                       !- Design Zone Air Distribution Effectiveness in Cooling Mode
  ,                                       !- Design Zone Air Distribution Effectiveness in Heating Mode
  ,                                       !- Design Zone Secondary Recirculation Fraction {dimensionless}
  ,                                       !- Design Minimum Zone Ventilation Efficiency {dimensionless}
  Coincident;                             !- Sizing Option

OS:ZoneHVAC:EquipmentList,
  {a90a2a0d-a3b7-4cc7-b6ac-fe76194b9ee1}, !- Handle
  Zone HVAC Equipment List 1,             !- Name
  {6f9ec2d1-9961-4130-a500-663286797f7f}, !- Thermal Zone
  ,                                       !- Load Distribution Scheme
  {9d75e8ff-07ac-46c5-9733-db33ffddec67}, !- Zone Equipment 1
  1,                                      !- Zone Equipment Cooling Sequence 1
  1,                                      !- Zone Equipment Heating or No-Load Sequence 1
  ,                                       !- Zone Equipment Sequential Cooling Fraction Schedule Name 1
  ,                                       !- Zone Equipment Sequential Heating Fraction Schedule Name 1
  {5db55e52-8a02-4d3a-922e-cc39ff5a03d0}, !- Zone Equipment 2
  2,                                      !- Zone Equipment Cooling Sequence 2
  2,                                      !- Zone Equipment Heating or No-Load Sequence 2
  ,                                       !- Zone Equipment Sequential Cooling Fraction Schedule Name 2
  ;                                       !- Zone Equipment Sequential Heating Fraction Schedule Name 2

OS:Space,
  {6af13e0b-d0e4-456b-9c45-eb95b67d6165}, !- Handle
  G SW Apartment Space,                   !- Name
  {ba2d9fe1-072d-480d-9591-33a67f5a9ebb}, !- Space Type Name
  ,                                       !- Default Construction Set Name
  ,                                       !- Default Schedule Set Name
  0,                                      !- Direction of Relative North {deg}
  0,                                      !- X Origin {m}
  0,                                      !- Y Origin {m}
  0,                                      !- Z Origin {m}
  ,                                       !- Building Story Name
  {6f9ec2d1-9961-4130-a500-663286797f7f}, !- Thermal Zone Name
  ,                                       !- Part of Total Floor Area
  {bd426807-3bb2-40b9-ad8d-e0fff4879622}; !- Design Specification Outdoor Air Object Name

OS:ThermalZone,
  {f44527c5-9b66-47c0-a7ad-c66b5f61d25f}, !- Handle
  G NW Apartment,                         !- Name
  1,                                      !- Multiplier
  ,                                       !- Ceiling Height {m}
  ,                                       !- Volume {m3}
  ,                                       !- Floor Area {m2}
  ,                                       !- Zone Inside Convection Algorithm
  ,                                       !- Zone Outside Convection Algorithm
  ,                                       !- Zone Conditioning Equipment List Name
  {b8b1227d-2832-4035-aeb9-eb1e067d989d}, !- Zone Air Inlet Port List
  {35d69753-0a4d-42ad-a1af-29356903b7cf}, !- Zone Air Exhaust Port List
  {1119a5fa-f620-4599-8c70-d6df0ca732ea}, !- Zone Air Node Name
  {c7629875-4df3-4ca4-9233-05f6323d4cb7}, !- Zone Return Air Port List
  ,                                       !- Primary Daylighting Control Name
  ,                                       !- Fraction of Zone Controlled by Primary Daylighting Control